30

C   -0.0173    1.4248    0.0099 
O    0.0021   -0.0041    0.0020 
C    0.6518   -0.5703   -1.1379 
C    0.6131   -2.0967   -1.0411 
O   -0.7418   -2.5446   -1.1169 
C   -0.8903   -3.9635   -1.0357 
C   -2.3736   -4.3271   -1.1270 
O   -2.8736   -3.9679   -2.4166 
C   -4.2579   -4.2669   -2.6073 
C   -4.6822   -3.8423   -4.0146 
O   -3.9879   -4.6340   -4.9806 
C   -4.3138   -4.3161   -6.3352 
H    1.0053    1.8021    0.0021 
H   -0.5445    1.7859   -0.8732 
H   -0.5275    1.7763    0.9067 
H    0.1385   -0.2506   -2.0447
H    1.6883   -0.2344   -1.1694
H    1.1847   -2.5275   -1.8631 
H    1.0473   -2.4117   -0.0922 
H   -0.3498   -4.4331   -1.8576 
H   -0.4873   -4.3173   -0.0867 
H   -2.4948   -5.3999   -0.9762 
H   -2.9280   -3.7875   -0.3592 
H   -4.4181   -5.3384   -2.4872 
H   -4.8513   -3.7260   -1.8702 
H   -5.7563   -3.9880   -4.1297 
H   -4.4400   -2.7903   -4.1653 
H   -5.3802   -4.4716   -6.4984 
H   -4.0639   -3.2739   -6.5340 
H   -3.7457   -4.9603   -7.0063
